[board]
type=System
children=cache_hierarchy clk_domain dvfs_handler memory processor workload
auto_unlink_shared_backstore=false
cache_line_size=64
eventq_index=0
exit_on_work_items=true
init_param=0
m5ops_base=0
mem_mode=timing
mem_ranges=0:1073741824
memories=board.memory.mem_ctrl.dram
mmap_using_noreserve=false
multi_thread=false
num_work_ids=16
readfile=
redirect_paths=
shadow_rom_ranges=
shared_backstore=
symbolfile=
thermal_components=
thermal_model=Null
work_begin_ckpt_count=0
work_begin_cpu_id_exit=-1
work_begin_exit_count=0
work_cpus_ckpt_count=0
work_end_ckpt_count=0
work_end_exit_count=0
work_item_id=-1
workload=board.workload
system_port=board.cache_hierarchy.ruby_system.sys_port_proxy.in_ports[0]

[board.cache_hierarchy]
type=SubSystem
children=ruby_system
eventq_index=0
thermal_domain=Null

[board.cache_hierarchy.ruby_system]
type=RubySystem
children=directory_controllers l1_controllers0 l1_controllers1 l2_controllers network power_state sys_port_proxy
access_backing_store=false
all_instructions=false
block_size_bytes=64
clk_domain=board.clk_domain
eventq_index=0
hot_lines=false
memory_size_bits=64
num_of_sequencers=2
number_of_virtual_networks=5
phys_mem=Null
power_model=
power_state=board.cache_hierarchy.ruby_system.power_state
randomization=false
system=board

[board.cache_hierarchy.ruby_system.directory_controllers]
type=Directory_Controller
children=directory power_state requestToDir requestToMemory responseFromDir responseFromMemory responseToDir
addr_ranges=0:1073741824
buffer_size=0
clk_domain=board.clk_domain
cluster_id=0
directory=board.cache_hierarchy.ruby_system.directory_controllers.directory
directory_latency=6
downstream_destinations=
eventq_index=0
mandatory_queue_latency=1
number_of_TBEs=256
power_model=
power_state=board.cache_hierarchy.ruby_system.directory_controllers.power_state
recycle_latency=10
requestToDir=board.cache_hierarchy.ruby_system.directory_controllers.requestToDir
requestToMemory=board.cache_hierarchy.ruby_system.directory_controllers.requestToMemory
responseFromDir=board.cache_hierarchy.ruby_system.directory_controllers.responseFromDir
responseFromMemory=board.cache_hierarchy.ruby_system.directory_controllers.responseFromMemory
responseToDir=board.cache_hierarchy.ruby_system.directory_controllers.responseToDir
ruby_system=board.cache_hierarchy.ruby_system
system=board
to_mem_ctrl_latency=1
transitions_per_cycle=32
upstream_destinations=
version=0
memory_out_port=board.memory.mem_ctrl.port

[board.cache_hierarchy.ruby_system.directory_controllers.directory]
type=RubyDirectoryMemory
addr_ranges=0:1073741824
eventq_index=0

[board.cache_hierarchy.ruby_system.directory_controllers.power_state]
type=PowerState
clk_gate_bins=20
clk_gate_max=1000000000000
clk_gate_min=1000
default_state=UNDEFINED
eventq_index=0
leaders=
possible_states=

[board.cache_hierarchy.ruby_system.directory_controllers.requestToDir]
type=MessageBuffer
allow_zero_latency=false
buffer_size=0
eventq_index=0
max_dequeue_rate=0
ordered=false
randomization=ruby_system
routing_priority=0
in_port=board.cache_hierarchy.ruby_system.network.out_port[7]

[board.cache_hierarchy.ruby_system.directory_controllers.requestToMemory]
type=MessageBuffer
allow_zero_latency=false
buffer_size=0
eventq_index=0
max_dequeue_rate=0
ordered=false
randomization=ruby_system
routing_priority=0

[board.cache_hierarchy.ruby_system.directory_controllers.responseFromDir]
type=MessageBuffer
allow_zero_latency=false
buffer_size=0
eventq_index=0
max_dequeue_rate=0
ordered=false
randomization=ruby_system
routing_priority=0
out_port=board.cache_hierarchy.ruby_system.network.in_port[9]

[board.cache_hierarchy.ruby_system.directory_controllers.responseFromMemory]
type=MessageBuffer
allow_zero_latency=false
buffer_size=0
eventq_index=0
max_dequeue_rate=0
ordered=false
randomization=ruby_system
routing_priority=0

[board.cache_hierarchy.ruby_system.directory_controllers.responseToDir]
type=MessageBuffer
allow_zero_latency=false
buffer_size=0
eventq_index=0
max_dequeue_rate=0
ordered=false
randomization=ruby_system
routing_priority=0
in_port=board.cache_hierarchy.ruby_system.network.out_port[8]

[board.cache_hierarchy.ruby_system.l1_controllers0]
type=L1Cache_Controller
children=L1Dcache L1Icache mandatoryQueue optionalQueue power_state prefetcher requestFromL1Cache requestToL1Cache responseFromL1Cache responseToL1Cache sequencer unblockFromL1Cache
L1Dcache=board.cache_hierarchy.ruby_system.l1_controllers0.L1Dcache
L1Icache=board.cache_hierarchy.ruby_system.l1_controllers0.L1Icache
addr_ranges=0:18446744073709551615
buffer_size=0
clk_domain=board.clk_domain
cluster_id=0
downstream_destinations=
enable_prefetch=false
eventq_index=0
l1_request_latency=2
l1_response_latency=2
l2_select_num_bits=0
mandatoryQueue=board.cache_hierarchy.ruby_system.l1_controllers0.mandatoryQueue
mandatory_queue_latency=1
number_of_TBEs=256
optionalQueue=board.cache_hierarchy.ruby_system.l1_controllers0.optionalQueue
power_model=
power_state=board.cache_hierarchy.ruby_system.l1_controllers0.power_state
prefetcher=board.cache_hierarchy.ruby_system.l1_controllers0.prefetcher
recycle_latency=10
requestFromL1Cache=board.cache_hierarchy.ruby_system.l1_controllers0.requestFromL1Cache
requestToL1Cache=board.cache_hierarchy.ruby_system.l1_controllers0.requestToL1Cache
responseFromL1Cache=board.cache_hierarchy.ruby_system.l1_controllers0.responseFromL1Cache
responseToL1Cache=board.cache_hierarchy.ruby_system.l1_controllers0.responseToL1Cache
ruby_system=board.cache_hierarchy.ruby_system
send_evictions=true
sequencer=board.cache_hierarchy.ruby_system.l1_controllers0.sequencer
system=board
to_l2_latency=1
transitions_per_cycle=4
unblockFromL1Cache=board.cache_hierarchy.ruby_system.l1_controllers0.unblockFromL1Cache
upstream_destinations=
version=0

[board.cache_hierarchy.ruby_system.l1_controllers0.L1Dcache]
type=RubyCache
children=replacement_policy
assoc=8
atomicALUs=64
atomicLatency=0
block_size=0
dataAccessLatency=1
dataArrayBanks=1
eventq_index=0
is_icache=false
replacement_policy=board.cache_hierarchy.ruby_system.l1_controllers0.L1Dcache.replacement_policy
resourceStalls=false
ruby_system=board.cache_hierarchy.ruby_system
size=32768
start_index_bit=6
tagAccessLatency=1
tagArrayBanks=1

[board.cache_hierarchy.ruby_system.l1_controllers0.L1Dcache.replacement_policy]
type=TreePLRURP
eventq_index=0
num_leaves=8

[board.cache_hierarchy.ruby_system.l1_controllers0.L1Icache]
type=RubyCache
children=replacement_policy
assoc=8
atomicALUs=64
atomicLatency=0
block_size=0
dataAccessLatency=1
dataArrayBanks=1
eventq_index=0
is_icache=true
replacement_policy=board.cache_hierarchy.ruby_system.l1_controllers0.L1Icache.replacement_policy
resourceStalls=false
ruby_system=board.cache_hierarchy.ruby_system
size=32768
start_index_bit=6
tagAccessLatency=1
tagArrayBanks=1

[board.cache_hierarchy.ruby_system.l1_controllers0.L1Icache.replacement_policy]
type=TreePLRURP
eventq_index=0
num_leaves=8

[board.cache_hierarchy.ruby_system.l1_controllers0.mandatoryQueue]
type=MessageBuffer
allow_zero_latency=false
buffer_size=0
eventq_index=0
max_dequeue_rate=0
ordered=false
randomization=ruby_system
routing_priority=0

[board.cache_hierarchy.ruby_system.l1_controllers0.optionalQueue]
type=MessageBuffer
allow_zero_latency=false
buffer_size=0
eventq_index=0
max_dequeue_rate=0
ordered=false
randomization=ruby_system
routing_priority=0

[board.cache_hierarchy.ruby_system.l1_controllers0.power_state]
type=PowerState
clk_gate_bins=20
clk_gate_max=1000000000000
clk_gate_min=1000
default_state=UNDEFINED
eventq_index=0
leaders=
possible_states=

[board.cache_hierarchy.ruby_system.l1_controllers0.prefetcher]
type=RubyPrefetcher
cross_page=false
eventq_index=0
nonunit_filter=8
num_startup_pfs=1
num_streams=4
page_shift=12
train_misses=4
unit_filter=8

[board.cache_hierarchy.ruby_system.l1_controllers0.requestFromL1Cache]
type=MessageBuffer
allow_zero_latency=false
buffer_size=0
eventq_index=0
max_dequeue_rate=0
ordered=false
randomization=ruby_system
routing_priority=0
out_port=board.cache_hierarchy.ruby_system.network.in_port[0]

[board.cache_hierarchy.ruby_system.l1_controllers0.requestToL1Cache]
type=MessageBuffer
allow_zero_latency=false
buffer_size=0
eventq_index=0
max_dequeue_rate=0
ordered=false
randomization=ruby_system
routing_priority=0
in_port=board.cache_hierarchy.ruby_system.network.out_port[0]

[board.cache_hierarchy.ruby_system.l1_controllers0.responseFromL1Cache]
type=MessageBuffer
allow_zero_latency=false
buffer_size=0
eventq_index=0
max_dequeue_rate=0
ordered=false
randomization=ruby_system
routing_priority=0
out_port=board.cache_hierarchy.ruby_system.network.in_port[1]

[board.cache_hierarchy.ruby_system.l1_controllers0.responseToL1Cache]
type=MessageBuffer
allow_zero_latency=false
buffer_size=0
eventq_index=0
max_dequeue_rate=0
ordered=false
randomization=ruby_system
routing_priority=0
in_port=board.cache_hierarchy.ruby_system.network.out_port[1]

[board.cache_hierarchy.ruby_system.l1_controllers0.sequencer]
type=RubySequencer
children=power_state
clk_domain=board.clk_domain
coreid=99
dcache=board.cache_hierarchy.ruby_system.l1_controllers0.L1Dcache
deadlock_threshold=500000
eventq_index=0
garnet_standalone=false
is_cpu_sequencer=true
max_outstanding_requests=16
no_retry_on_stall=false
power_model=
power_state=board.cache_hierarchy.ruby_system.l1_controllers0.sequencer.power_state
ruby_system=board.cache_hierarchy.ruby_system
support_data_reqs=true
support_inst_reqs=true
system=board
using_ruby_tester=false
version=0
in_ports=board.processor.cores0.core.icache_port board.processor.cores0.core.dcache_port board.processor.cores0.core.mmu.itb.walker.port board.processor.cores0.core.mmu.dtb.walker.port board.processor.cores0.core.interrupts.int_requestor
interrupt_out_port=board.processor.cores0.core.interrupts.pio board.processor.cores0.core.interrupts.int_responder

[board.cache_hierarchy.ruby_system.l1_controllers0.sequencer.power_state]
type=PowerState
clk_gate_bins=20
clk_gate_max=1000000000000
clk_gate_min=1000
default_state=UNDEFINED
eventq_index=0
leaders=
possible_states=

[board.cache_hierarchy.ruby_system.l1_controllers0.unblockFromL1Cache]
type=MessageBuffer
allow_zero_latency=false
buffer_size=0
eventq_index=0
max_dequeue_rate=0
ordered=false
randomization=ruby_system
routing_priority=0
out_port=board.cache_hierarchy.ruby_system.network.in_port[2]

[board.cache_hierarchy.ruby_system.l1_controllers1]
type=L1Cache_Controller
children=L1Dcache L1Icache mandatoryQueue optionalQueue power_state prefetcher requestFromL1Cache requestToL1Cache responseFromL1Cache responseToL1Cache sequencer unblockFromL1Cache
L1Dcache=board.cache_hierarchy.ruby_system.l1_controllers1.L1Dcache
L1Icache=board.cache_hierarchy.ruby_system.l1_controllers1.L1Icache
addr_ranges=0:18446744073709551615
buffer_size=0
clk_domain=board.clk_domain
cluster_id=0
downstream_destinations=
enable_prefetch=false
eventq_index=0
l1_request_latency=2
l1_response_latency=2
l2_select_num_bits=0
mandatoryQueue=board.cache_hierarchy.ruby_system.l1_controllers1.mandatoryQueue
mandatory_queue_latency=1
number_of_TBEs=256
optionalQueue=board.cache_hierarchy.ruby_system.l1_controllers1.optionalQueue
power_model=
power_state=board.cache_hierarchy.ruby_system.l1_controllers1.power_state
prefetcher=board.cache_hierarchy.ruby_system.l1_controllers1.prefetcher
recycle_latency=10
requestFromL1Cache=board.cache_hierarchy.ruby_system.l1_controllers1.requestFromL1Cache
requestToL1Cache=board.cache_hierarchy.ruby_system.l1_controllers1.requestToL1Cache
responseFromL1Cache=board.cache_hierarchy.ruby_system.l1_controllers1.responseFromL1Cache
responseToL1Cache=board.cache_hierarchy.ruby_system.l1_controllers1.responseToL1Cache
ruby_system=board.cache_hierarchy.ruby_system
send_evictions=true
sequencer=board.cache_hierarchy.ruby_system.l1_controllers1.sequencer
system=board
to_l2_latency=1
transitions_per_cycle=4
unblockFromL1Cache=board.cache_hierarchy.ruby_system.l1_controllers1.unblockFromL1Cache
upstream_destinations=
version=1

[board.cache_hierarchy.ruby_system.l1_controllers1.L1Dcache]
type=RubyCache
children=replacement_policy
assoc=8
atomicALUs=64
atomicLatency=0
block_size=0
dataAccessLatency=1
dataArrayBanks=1
eventq_index=0
is_icache=false
replacement_policy=board.cache_hierarchy.ruby_system.l1_controllers1.L1Dcache.replacement_policy
resourceStalls=false
ruby_system=board.cache_hierarchy.ruby_system
size=32768
start_index_bit=6
tagAccessLatency=1
tagArrayBanks=1

[board.cache_hierarchy.ruby_system.l1_controllers1.L1Dcache.replacement_policy]
type=TreePLRURP
eventq_index=0
num_leaves=8

[board.cache_hierarchy.ruby_system.l1_controllers1.L1Icache]
type=RubyCache
children=replacement_policy
assoc=8
atomicALUs=64
atomicLatency=0
block_size=0
dataAccessLatency=1
dataArrayBanks=1
eventq_index=0
is_icache=true
replacement_policy=board.cache_hierarchy.ruby_system.l1_controllers1.L1Icache.replacement_policy
resourceStalls=false
ruby_system=board.cache_hierarchy.ruby_system
size=32768
start_index_bit=6
tagAccessLatency=1
tagArrayBanks=1

[board.cache_hierarchy.ruby_system.l1_controllers1.L1Icache.replacement_policy]
type=TreePLRURP
eventq_index=0
num_leaves=8

[board.cache_hierarchy.ruby_system.l1_controllers1.mandatoryQueue]
type=MessageBuffer
allow_zero_latency=false
buffer_size=0
eventq_index=0
max_dequeue_rate=0
ordered=false
randomization=ruby_system
routing_priority=0

[board.cache_hierarchy.ruby_system.l1_controllers1.optionalQueue]
type=MessageBuffer
allow_zero_latency=false
buffer_size=0
eventq_index=0
max_dequeue_rate=0
ordered=false
randomization=ruby_system
routing_priority=0

[board.cache_hierarchy.ruby_system.l1_controllers1.power_state]
type=PowerState
clk_gate_bins=20
clk_gate_max=1000000000000
clk_gate_min=1000
default_state=UNDEFINED
eventq_index=0
leaders=
possible_states=

[board.cache_hierarchy.ruby_system.l1_controllers1.prefetcher]
type=RubyPrefetcher
cross_page=false
eventq_index=0
nonunit_filter=8
num_startup_pfs=1
num_streams=4
page_shift=12
train_misses=4
unit_filter=8

[board.cache_hierarchy.ruby_system.l1_controllers1.requestFromL1Cache]
type=MessageBuffer
allow_zero_latency=false
buffer_size=0
eventq_index=0
max_dequeue_rate=0
ordered=false
randomization=ruby_system
routing_priority=0
out_port=board.cache_hierarchy.ruby_system.network.in_port[3]

[board.cache_hierarchy.ruby_system.l1_controllers1.requestToL1Cache]
type=MessageBuffer
allow_zero_latency=false
buffer_size=0
eventq_index=0
max_dequeue_rate=0
ordered=false
randomization=ruby_system
routing_priority=0
in_port=board.cache_hierarchy.ruby_system.network.out_port[2]

[board.cache_hierarchy.ruby_system.l1_controllers1.responseFromL1Cache]
type=MessageBuffer
allow_zero_latency=false
buffer_size=0
eventq_index=0
max_dequeue_rate=0
ordered=false
randomization=ruby_system
routing_priority=0
out_port=board.cache_hierarchy.ruby_system.network.in_port[4]

[board.cache_hierarchy.ruby_system.l1_controllers1.responseToL1Cache]
type=MessageBuffer
allow_zero_latency=false
buffer_size=0
eventq_index=0
max_dequeue_rate=0
ordered=false
randomization=ruby_system
routing_priority=0
in_port=board.cache_hierarchy.ruby_system.network.out_port[3]

[board.cache_hierarchy.ruby_system.l1_controllers1.sequencer]
type=RubySequencer
children=power_state
clk_domain=board.clk_domain
coreid=99
dcache=board.cache_hierarchy.ruby_system.l1_controllers1.L1Dcache
deadlock_threshold=500000
eventq_index=0
garnet_standalone=false
is_cpu_sequencer=true
max_outstanding_requests=16
no_retry_on_stall=false
power_model=
power_state=board.cache_hierarchy.ruby_system.l1_controllers1.sequencer.power_state
ruby_system=board.cache_hierarchy.ruby_system
support_data_reqs=true
support_inst_reqs=true
system=board
using_ruby_tester=false
version=1
in_ports=board.processor.cores1.core.icache_port board.processor.cores1.core.dcache_port board.processor.cores1.core.mmu.itb.walker.port board.processor.cores1.core.mmu.dtb.walker.port board.processor.cores1.core.interrupts.int_requestor
interrupt_out_port=board.processor.cores1.core.interrupts.pio board.processor.cores1.core.interrupts.int_responder

[board.cache_hierarchy.ruby_system.l1_controllers1.sequencer.power_state]
type=PowerState
clk_gate_bins=20
clk_gate_max=1000000000000
clk_gate_min=1000
default_state=UNDEFINED
eventq_index=0
leaders=
possible_states=

[board.cache_hierarchy.ruby_system.l1_controllers1.unblockFromL1Cache]
type=MessageBuffer
allow_zero_latency=false
buffer_size=0
eventq_index=0
max_dequeue_rate=0
ordered=false
randomization=ruby_system
routing_priority=0
out_port=board.cache_hierarchy.ruby_system.network.in_port[5]

[board.cache_hierarchy.ruby_system.l2_controllers]
type=L2Cache_Controller
children=DirRequestFromL2Cache L1RequestFromL2Cache L1RequestToL2Cache L2cache power_state responseFromL2Cache responseToL2Cache unblockToL2Cache
DirRequestFromL2Cache=board.cache_hierarchy.ruby_system.l2_controllers.DirRequestFromL2Cache
L1RequestFromL2Cache=board.cache_hierarchy.ruby_system.l2_controllers.L1RequestFromL2Cache
L1RequestToL2Cache=board.cache_hierarchy.ruby_system.l2_controllers.L1RequestToL2Cache
L2cache=board.cache_hierarchy.ruby_system.l2_controllers.L2cache
addr_ranges=0:18446744073709551615
buffer_size=0
clk_domain=board.clk_domain
cluster_id=0
downstream_destinations=
eventq_index=0
l2_request_latency=2
l2_response_latency=2
mandatory_queue_latency=1
number_of_TBEs=256
power_model=
power_state=board.cache_hierarchy.ruby_system.l2_controllers.power_state
recycle_latency=10
responseFromL2Cache=board.cache_hierarchy.ruby_system.l2_controllers.responseFromL2Cache
responseToL2Cache=board.cache_hierarchy.ruby_system.l2_controllers.responseToL2Cache
ruby_system=board.cache_hierarchy.ruby_system
system=board
to_l1_latency=1
transitions_per_cycle=4
unblockToL2Cache=board.cache_hierarchy.ruby_system.l2_controllers.unblockToL2Cache
upstream_destinations=
version=0

[board.cache_hierarchy.ruby_system.l2_controllers.DirRequestFromL2Cache]
type=MessageBuffer
allow_zero_latency=false
buffer_size=0
eventq_index=0
max_dequeue_rate=0
ordered=false
randomization=ruby_system
routing_priority=0
out_port=board.cache_hierarchy.ruby_system.network.in_port[6]

[board.cache_hierarchy.ruby_system.l2_controllers.L1RequestFromL2Cache]
type=MessageBuffer
allow_zero_latency=false
buffer_size=0
eventq_index=0
max_dequeue_rate=0
ordered=false
randomization=ruby_system
routing_priority=0
out_port=board.cache_hierarchy.ruby_system.network.in_port[7]

[board.cache_hierarchy.ruby_system.l2_controllers.L1RequestToL2Cache]
type=MessageBuffer
allow_zero_latency=false
buffer_size=0
eventq_index=0
max_dequeue_rate=0
ordered=false
randomization=ruby_system
routing_priority=0
in_port=board.cache_hierarchy.ruby_system.network.out_port[5]

[board.cache_hierarchy.ruby_system.l2_controllers.L2cache]
type=RubyCache
children=replacement_policy
assoc=8
atomicALUs=64
atomicLatency=0
block_size=0
dataAccessLatency=1
dataArrayBanks=1
eventq_index=0
is_icache=false
replacement_policy=board.cache_hierarchy.ruby_system.l2_controllers.L2cache.replacement_policy
resourceStalls=false
ruby_system=board.cache_hierarchy.ruby_system
size=524288
start_index_bit=6
tagAccessLatency=1
tagArrayBanks=1

[board.cache_hierarchy.ruby_system.l2_controllers.L2cache.replacement_policy]
type=TreePLRURP
eventq_index=0
num_leaves=8

[board.cache_hierarchy.ruby_system.l2_controllers.power_state]
type=PowerState
clk_gate_bins=20
clk_gate_max=1000000000000
clk_gate_min=1000
default_state=UNDEFINED
eventq_index=0
leaders=
possible_states=

[board.cache_hierarchy.ruby_system.l2_controllers.responseFromL2Cache]
type=MessageBuffer
allow_zero_latency=false
buffer_size=0
eventq_index=0
max_dequeue_rate=0
ordered=false
randomization=ruby_system
routing_priority=0
out_port=board.cache_hierarchy.ruby_system.network.in_port[8]

[board.cache_hierarchy.ruby_system.l2_controllers.responseToL2Cache]
type=MessageBuffer
allow_zero_latency=false
buffer_size=0
eventq_index=0
max_dequeue_rate=0
ordered=false
randomization=ruby_system
routing_priority=0
in_port=board.cache_hierarchy.ruby_system.network.out_port[6]

[board.cache_hierarchy.ruby_system.l2_controllers.unblockToL2Cache]
type=MessageBuffer
allow_zero_latency=false
buffer_size=0
eventq_index=0
max_dequeue_rate=0
ordered=false
randomization=ruby_system
routing_priority=0
in_port=board.cache_hierarchy.ruby_system.network.out_port[4]

[board.cache_hierarchy.ruby_system.network]
type=SimpleNetwork
children=dir_ext_link hack_ext_link l1_l2_link0 l1_link_0 l1_switch_0 l2_l1_link0 l2_link_0 l2_switch_0 l2_xbar_link0 power_state xbar xbar_l2_link0
buffer_size=0
clk_domain=board.clk_domain
control_msg_size=8
data_msg_size=64
endpoint_bandwidth=1000
eventq_index=0
ext_links=board.cache_hierarchy.ruby_system.network.l1_link_0 board.cache_hierarchy.ruby_system.network.l2_link_0 board.cache_hierarchy.ruby_system.network.dir_ext_link board.cache_hierarchy.ruby_system.network.hack_ext_link
int_links=board.cache_hierarchy.ruby_system.network.l1_l2_link0 board.cache_hierarchy.ruby_system.network.l2_l1_link0 board.cache_hierarchy.ruby_system.network.l2_xbar_link0 board.cache_hierarchy.ruby_system.network.xbar_l2_link0
netifs=
number_of_virtual_networks=5
physical_vnets_bandwidth=
physical_vnets_channels=
power_model=
power_state=board.cache_hierarchy.ruby_system.network.power_state
routers=board.cache_hierarchy.ruby_system.network.xbar board.cache_hierarchy.ruby_system.network.l1_switch_0 board.cache_hierarchy.ruby_system.network.l2_switch_0
ruby_system=board.cache_hierarchy.ruby_system
topology=Not Specified
in_port=board.cache_hierarchy.ruby_system.l1_controllers0.requestFromL1Cache.out_port board.cache_hierarchy.ruby_system.l1_controllers0.responseFromL1Cache.out_port board.cache_hierarchy.ruby_system.l1_controllers0.unblockFromL1Cache.out_port board.cache_hierarchy.ruby_system.l1_controllers1.requestFromL1Cache.out_port board.cache_hierarchy.ruby_system.l1_controllers1.responseFromL1Cache.out_port board.cache_hierarchy.ruby_system.l1_controllers1.unblockFromL1Cache.out_port board.cache_hierarchy.ruby_system.l2_controllers.DirRequestFromL2Cache.out_port board.cache_hierarchy.ruby_system.l2_controllers.L1RequestFromL2Cache.out_port board.cache_hierarchy.ruby_system.l2_controllers.responseFromL2Cache.out_port board.cache_hierarchy.ruby_system.directory_controllers.responseFromDir.out_port
out_port=board.cache_hierarchy.ruby_system.l1_controllers0.requestToL1Cache.in_port board.cache_hierarchy.ruby_system.l1_controllers0.responseToL1Cache.in_port board.cache_hierarchy.ruby_system.l1_controllers1.requestToL1Cache.in_port board.cache_hierarchy.ruby_system.l1_controllers1.responseToL1Cache.in_port board.cache_hierarchy.ruby_system.l2_controllers.unblockToL2Cache.in_port board.cache_hierarchy.ruby_system.l2_controllers.L1RequestToL2Cache.in_port board.cache_hierarchy.ruby_system.l2_controllers.responseToL2Cache.in_port board.cache_hierarchy.ruby_system.directory_controllers.requestToDir.in_port board.cache_hierarchy.ruby_system.directory_controllers.responseToDir.in_port

[board.cache_hierarchy.ruby_system.network.dir_ext_link]
type=SimpleExtLink
bandwidth_factor=16
eventq_index=0
ext_node=board.cache_hierarchy.ruby_system.directory_controllers
int_node=board.cache_hierarchy.ruby_system.network.xbar
latency=1
link_id=2
supported_vnets=
weight=1

[board.cache_hierarchy.ruby_system.network.hack_ext_link]
type=SimpleExtLink
bandwidth_factor=16
eventq_index=0
ext_node=board.cache_hierarchy.ruby_system.l1_controllers0
int_node=board.cache_hierarchy.ruby_system.network.xbar
latency=1
link_id=3
supported_vnets=
weight=1

[board.cache_hierarchy.ruby_system.network.l1_l2_link0]
type=SimpleIntLink
children=buffers0 buffers1 buffers2 buffers3 buffers4
bandwidth_factor=16
buffers=board.cache_hierarchy.ruby_system.network.l1_l2_link0.buffers0 board.cache_hierarchy.ruby_system.network.l1_l2_link0.buffers1 board.cache_hierarchy.ruby_system.network.l1_l2_link0.buffers2 board.cache_hierarchy.ruby_system.network.l1_l2_link0.buffers3 board.cache_hierarchy.ruby_system.network.l1_l2_link0.buffers4
dst_inport=
dst_node=board.cache_hierarchy.ruby_system.network.l2_switch_0
eventq_index=0
latency=1
link_id=0
src_node=board.cache_hierarchy.ruby_system.network.l1_switch_0
src_outport=
supported_vnets=
weight=1

[board.cache_hierarchy.ruby_system.network.l1_l2_link0.buffers0]
type=MessageBuffer
allow_zero_latency=false
buffer_size=0
eventq_index=0
max_dequeue_rate=0
ordered=true
randomization=ruby_system
routing_priority=0

[board.cache_hierarchy.ruby_system.network.l1_l2_link0.buffers1]
type=MessageBuffer
allow_zero_latency=false
buffer_size=0
eventq_index=0
max_dequeue_rate=0
ordered=true
randomization=ruby_system
routing_priority=0

[board.cache_hierarchy.ruby_system.network.l1_l2_link0.buffers2]
type=MessageBuffer
allow_zero_latency=false
buffer_size=0
eventq_index=0
max_dequeue_rate=0
ordered=true
randomization=ruby_system
routing_priority=0

[board.cache_hierarchy.ruby_system.network.l1_l2_link0.buffers3]
type=MessageBuffer
allow_zero_latency=false
buffer_size=0
eventq_index=0
max_dequeue_rate=0
ordered=true
randomization=ruby_system
routing_priority=0

[board.cache_hierarchy.ruby_system.network.l1_l2_link0.buffers4]
type=MessageBuffer
allow_zero_latency=false
buffer_size=0
eventq_index=0
max_dequeue_rate=0
ordered=true
randomization=ruby_system
routing_priority=0

[board.cache_hierarchy.ruby_system.network.l1_link_0]
type=SimpleExtLink
bandwidth_factor=16
eventq_index=0
ext_node=board.cache_hierarchy.ruby_system.l1_controllers1
int_node=board.cache_hierarchy.ruby_system.network.l1_switch_0
latency=1
link_id=0
supported_vnets=
weight=1

[board.cache_hierarchy.ruby_system.network.l1_switch_0]
type=Switch
children=port_buffers0 port_buffers1 port_buffers2 port_buffers3 port_buffers4 port_buffers5 port_buffers6 port_buffers7 port_buffers8 port_buffers9 power_state routing_unit
clk_domain=board.clk_domain
eventq_index=0
ext_routing_latency=1
int_routing_latency=1
latency=1
port_buffers=board.cache_hierarchy.ruby_system.network.l1_switch_0.port_buffers0 board.cache_hierarchy.ruby_system.network.l1_switch_0.port_buffers1 board.cache_hierarchy.ruby_system.network.l1_switch_0.port_buffers2 board.cache_hierarchy.ruby_system.network.l1_switch_0.port_buffers3 board.cache_hierarchy.ruby_system.network.l1_switch_0.port_buffers4 board.cache_hierarchy.ruby_system.network.l1_switch_0.port_buffers5 board.cache_hierarchy.ruby_system.network.l1_switch_0.port_buffers6 board.cache_hierarchy.ruby_system.network.l1_switch_0.port_buffers7 board.cache_hierarchy.ruby_system.network.l1_switch_0.port_buffers8 board.cache_hierarchy.ruby_system.network.l1_switch_0.port_buffers9
power_model=
power_state=board.cache_hierarchy.ruby_system.network.l1_switch_0.power_state
router_id=1
routing_unit=board.cache_hierarchy.ruby_system.network.l1_switch_0.routing_unit
virt_nets=5

[board.cache_hierarchy.ruby_system.network.l1_switch_0.port_buffers0]
type=MessageBuffer
allow_zero_latency=true
buffer_size=0
eventq_index=0
max_dequeue_rate=0
ordered=true
randomization=ruby_system
routing_priority=0

[board.cache_hierarchy.ruby_system.network.l1_switch_0.port_buffers1]
type=MessageBuffer
allow_zero_latency=true
buffer_size=0
eventq_index=0
max_dequeue_rate=0
ordered=true
randomization=ruby_system
routing_priority=0

[board.cache_hierarchy.ruby_system.network.l1_switch_0.port_buffers2]
type=MessageBuffer
allow_zero_latency=true
buffer_size=0
eventq_index=0
max_dequeue_rate=0
ordered=true
randomization=ruby_system
routing_priority=0

[board.cache_hierarchy.ruby_system.network.l1_switch_0.port_buffers3]
type=MessageBuffer
allow_zero_latency=true
buffer_size=0
eventq_index=0
max_dequeue_rate=0
ordered=true
randomization=ruby_system
routing_priority=0

[board.cache_hierarchy.ruby_system.network.l1_switch_0.port_buffers4]
type=MessageBuffer
allow_zero_latency=true
buffer_size=0
eventq_index=0
max_dequeue_rate=0
ordered=true
randomization=ruby_system
routing_priority=0

[board.cache_hierarchy.ruby_system.network.l1_switch_0.port_buffers5]
type=MessageBuffer
allow_zero_latency=true
buffer_size=0
eventq_index=0
max_dequeue_rate=0
ordered=true
randomization=ruby_system
routing_priority=0

[board.cache_hierarchy.ruby_system.network.l1_switch_0.port_buffers6]
type=MessageBuffer
allow_zero_latency=true
buffer_size=0
eventq_index=0
max_dequeue_rate=0
ordered=true
randomization=ruby_system
routing_priority=0

[board.cache_hierarchy.ruby_system.network.l1_switch_0.port_buffers7]
type=MessageBuffer
allow_zero_latency=true
buffer_size=0
eventq_index=0
max_dequeue_rate=0
ordered=true
randomization=ruby_system
routing_priority=0

[board.cache_hierarchy.ruby_system.network.l1_switch_0.port_buffers8]
type=MessageBuffer
allow_zero_latency=true
buffer_size=0
eventq_index=0
max_dequeue_rate=0
ordered=true
randomization=ruby_system
routing_priority=0

[board.cache_hierarchy.ruby_system.network.l1_switch_0.port_buffers9]
type=MessageBuffer
allow_zero_latency=true
buffer_size=0
eventq_index=0
max_dequeue_rate=0
ordered=true
randomization=ruby_system
routing_priority=0

[board.cache_hierarchy.ruby_system.network.l1_switch_0.power_state]
type=PowerState
clk_gate_bins=20
clk_gate_max=1000000000000
clk_gate_min=1000
default_state=UNDEFINED
eventq_index=0
leaders=
possible_states=

[board.cache_hierarchy.ruby_system.network.l1_switch_0.routing_unit]
type=WeightBased
adaptive_routing=false
eventq_index=0

[board.cache_hierarchy.ruby_system.network.l2_l1_link0]
type=SimpleIntLink
children=buffers0 buffers1 buffers2 buffers3 buffers4
bandwidth_factor=16
buffers=board.cache_hierarchy.ruby_system.network.l2_l1_link0.buffers0 board.cache_hierarchy.ruby_system.network.l2_l1_link0.buffers1 board.cache_hierarchy.ruby_system.network.l2_l1_link0.buffers2 board.cache_hierarchy.ruby_system.network.l2_l1_link0.buffers3 board.cache_hierarchy.ruby_system.network.l2_l1_link0.buffers4
dst_inport=
dst_node=board.cache_hierarchy.ruby_system.network.l1_switch_0
eventq_index=0
latency=1
link_id=1